%chk=5c-sfuccsd_dz_11A1_geom-B3LYP_cc-pVDZ_nics.chk
%nproc=2
#B3LYP/cc-pVDZ nmr=giao

 C5H3X3: NICS job

-1 1

C                    -1.027759098970     0.000000000000    -0.402667698641
C                     0.000000000000     0.000000000000    -1.359371099014
H                     0.000000000000     0.000000000000    -2.447276897799
C                     1.027759098970     0.000000000000    -0.402667698641
C                     0.706985902349     0.000000000000     0.986081101857
H                     1.440953698696     0.000000000000     1.801271297541
C                    -0.706985902349     0.000000000000     0.986081101857
H                    -1.440953698696     0.000000000000     1.801271297541
Bq                    0.000000000000    -1.000000002404    -0.038508860633
Bq                    0.000000000000     0.000000000000    -0.038508860633
Bq                    0.000000000000     1.000000002404    -0.038508860633
