%chk=pbenzyne_geom-B3LYP_cc-pVDZ_nics.chk
%nproc=2
#B3LYP/cc-pVDZ nmr=giao

 C6H4X3: NICS job

0 1
C                     2.281169870000    -1.338389990000     0.000000000000
H                     4.056127410000    -2.323551310000     0.000000000000
C                     0.000000000000    -2.532774890000     0.000000000000
C                    -2.281169870000    -1.338389990000     0.000000000000
H                    -4.056127410000    -2.323551310000     0.000000000000
C                     2.281169870000     1.338389990000     0.000000000000
H                     4.056127410000     2.323551310000     0.000000000000
C                     0.000000000000     2.532774890000     0.000000000000
C                    -2.281169870000     1.338389990000     0.000000000000
H                    -4.056127400000     2.323551310000     0.000000000000
Bq                    0.000000000000     0.000000000000    -1.889726130000
Bq                    0.000000000000     0.000000000000     0.000000000000
Bq                    0.000000000000     0.000000000000     1.889726130000

