%chk=pbenzyne_geom-BSUB3LYP_6-311ppGss_nics.chk
%nproc=2
#UB3LYP/6-311++G** guess=(mix,always) scf=qc nmr=giao

 C6H4X3: Broken-symmetry requested; mixing HOMO/LUMO in SCF guess before NICS job

0 1
C                     2.281169870000    -1.338389990000     0.000000000000
H                     4.056127410000    -2.323551310000     0.000000000000
C                     0.000000000000    -2.532774890000     0.000000000000
C                    -2.281169870000    -1.338389990000     0.000000000000
H                    -4.056127410000    -2.323551310000     0.000000000000
C                     2.281169870000     1.338389990000     0.000000000000
H                     4.056127410000     2.323551310000     0.000000000000
C                     0.000000000000     2.532774890000     0.000000000000
C                    -2.281169870000     1.338389990000     0.000000000000
H                    -4.056127400000     2.323551310000     0.000000000000
Bq                    0.000000000000     0.000000000000    -1.889726130000
Bq                    0.000000000000     0.000000000000     0.000000000000
Bq                    0.000000000000     0.000000000000     1.889726130000

